8
	Energy:       5.0873096
S         -1.12982       -0.04508        0.00146
C         -0.01116        1.25535        0.00071
C          1.27608        0.76141       -0.00695
N          1.38861       -0.61535       -0.01217
C          0.18574       -1.14711       -0.00840
H         -0.33778        2.28500        0.00574
H          2.17540        1.36534       -0.00906
H          0.02694       -2.21755       -0.01132
