29
	Energy:      65.4955972
N          2.27666       -0.09238        0.25983
C          0.88433        0.03371        0.20806
C          0.23016        0.09057       -1.02700
C         -1.16537        0.08707       -1.09919
C         -1.91235       -0.00830        0.07620
C         -1.27609       -0.14172        1.31117
C          0.12032       -0.13706        1.36731
S         -3.68756       -0.04128       -0.01335
O         -4.04629       -0.61299       -1.29925
O         -4.17969       -0.64052        1.21462
C         -4.21237        1.65729       -0.01803
C         -4.42127        2.31503       -1.23122
C         -4.84437        3.64665       -1.22498
C         -5.11291        4.30755       -0.02170
N         -5.41375        5.67434       -0.02306
C         -4.85447        3.64663        1.18382
C         -4.43095        2.31515        1.19351
H          2.76025        0.33315       -0.52491
H          2.68346        0.17314        1.15131
H          0.80638        0.13117       -1.94818
H         -1.65241        0.13634       -2.07025
H         -1.84878       -0.27038        2.22668
H          0.61030       -0.27537        2.32809
H         -4.25178        1.81036       -2.17948
H         -4.97135        4.16485       -2.17237
H         -5.88211        5.99020       -0.86702
H         -5.88993        5.99018        0.81652
H         -4.98971        4.16480        2.13007
H         -4.26935        1.80982        2.14278
