27
	Energy:      64.1491980
O          2.19178       -0.23028       -0.25669
C          0.83464       -0.15290       -0.15509
C          0.19732       -0.19535        1.08290
C         -1.19508       -0.11158        1.14103
C         -1.92969        0.00444       -0.04463
C         -1.28495        0.06260       -1.28384
C          0.10632       -0.02312       -1.33438
S         -3.70258        0.12975        0.03183
O         -4.03947        0.68247        1.33203
O         -4.15008        0.78981       -1.18124
C         -4.31484       -1.53988       -0.01368
C         -4.61048       -2.20304        1.18267
C         -5.10381       -3.50855        1.14229
C         -5.30268       -4.12771       -0.08968
O         -5.78367       -5.40038       -0.17391
C         -5.02248       -3.46434       -1.28106
C         -4.53072       -2.15956       -1.24842
H          2.57168       -0.28573        0.63557
H          0.76412       -0.28650        2.00455
H         -1.69495       -0.13044        2.10702
H         -1.84927        0.17911       -2.20622
H          0.62378        0.01890       -2.28935
H         -4.46672       -1.71262        2.14299
H         -5.33089       -4.02068        2.07244
H         -5.96537       -5.72823        0.72221
H         -5.19511       -3.96161       -2.23206
H         -4.32782       -1.63861       -2.18128
