17
	Energy:      40.6093279
C          0.88687       -0.07258        0.00716
C          2.39767        0.13528       -0.00600
O          2.65115        1.17310       -0.95855
C          2.96064        0.53562        1.37779
N          2.53617       -0.34120        2.51433
C          4.49746        0.50085        1.31354
O          5.03197        0.02284        2.46734
O          5.16751        0.86599        0.35912
H          0.51823       -0.25437       -1.00863
H          0.37232        0.82358        0.37141
H          0.59720       -0.92313        0.63080
H          2.88053       -0.77775       -0.37475
H          3.62455        1.26769       -1.03507
H          2.69122        1.57027        1.62185
H          2.50158       -1.31006        2.17846
H          1.55948       -0.11594        2.72919
H          4.26144       -0.20519        3.04700
