45
	Energy:      75.9620759
O          1.33808        2.67401        1.67231
C          0.63727        3.08707        0.56163
C          1.26464        3.43564       -0.63719
C          0.50051        3.89336       -1.71193
C         -0.88375        4.01494       -1.58334
C         -1.50531        3.68403       -0.37901
C         -0.74326        3.22894        0.69726
C          2.27183        1.67900        1.49220
C          3.51359        1.85303        2.10329
C          4.49057        0.86332        1.98690
C          4.21871       -0.30506        1.27360
C          2.96807       -0.48863        0.68339
C          1.99045        0.49968        0.79972
C          0.60566       -2.00051       -2.53527
C         -0.00598       -2.72843       -1.51785
C         -1.01393       -2.14260       -0.74695
C         -1.43022       -0.82145       -0.98100
C         -0.80243       -0.10707       -2.01488
C          0.20871       -0.68926       -2.78372
C         -2.48142       -0.19923       -0.15971
C         -2.38294       -0.17099        1.24155
C         -3.37701        0.42521        2.02224
C         -4.48843        1.00284        1.41388
C         -4.60642        0.98498        0.02649
C         -3.61050        0.38978       -0.75270
H          2.34342        3.35927       -0.73795
H          0.98598        4.16088       -2.64661
H         -1.47841        4.37203       -2.42007
H         -2.58322        3.77679       -0.27579
H         -1.22748        2.97333        1.63540
H          3.72026        2.76009        2.66409
H          5.46141        1.00136        2.45525
H          4.97912       -1.07654        1.18425
H          2.74849       -1.40179        0.13635
H          1.01406        0.34166        0.35316
H          1.39098       -2.45400       -3.13402
H          0.29795       -3.75348       -1.32296
H         -1.48440       -2.73079        0.03848
H         -1.08438        0.92505       -2.21293
H          0.68788       -0.11385       -3.57130
H         -1.51466       -0.60215        1.73624
H         -3.27875        0.43997        3.10453
H         -5.26240        1.46515        2.02070
H         -5.47427        1.43080       -0.45208
H         -3.72505        0.37859       -1.83469
