33
	Energy:       4.4521646
C          4.01789        2.37442        2.64300
C          3.01206        1.24833        2.79256
O          3.68980        0.00312        3.01399
C          4.08602       -0.66358        1.89535
O          3.90997       -0.28642        0.74512
C          4.79812       -1.94209        2.26831
C          6.33434       -1.83024        2.31276
C          6.79463       -0.95313        3.48734
C          8.30429       -0.73053        3.55401
C          8.75713        0.49230        2.76044
C          8.68368        0.34232        1.24555
C          7.30544       -0.02476        0.69842
C          6.93725       -1.48833        0.93775
H          3.50958        3.33819        2.54921
H          4.64610        2.22536        1.75947
H          4.68812        2.40991        3.50811
H          2.34296        1.18910        1.92649
H          2.38493        1.43057        3.67139
H          4.49347       -2.70622        1.54192
H          4.41336       -2.29357        3.23416
H          6.68179       -2.84986        2.53794
H          6.48365       -1.45212        4.41500
H          6.28208        0.01510        3.48399
H          8.85241       -1.62637        3.24054
H          8.57112       -0.55387        4.60385
H          9.79786        0.71296        3.02905
H          8.17198        1.36814        3.06789
H          9.42437       -0.39603        0.91442
H          8.98746        1.29773        0.79928
H          7.33603        0.13338       -0.38737
H          6.53983        0.65450        1.08582
H          7.83395       -2.10473        0.78826
H          6.24332       -1.80862        0.14997
